@<TRIPOS>MOLECULE
generated by VMD
   89  100    1    0    0
SMALL
NO_CHARGES
****
Energy = 0

@<TRIPOS>ATOM
      1  H73      -10.3155   59.6148   46.5129    H    1  RES1        0.000000
      2  H89       -8.1180   57.4913   49.5212    H    1  RES1        0.000000
      3 H121       -6.5139   61.1036   47.8440    H    1  RES1        0.000000
      4 C217       -8.6006   61.6752   46.1933  C.2    1  RES1        0.000000
      5 C233       -6.0312   59.1860   49.7183  C.2    1  RES1        0.000000
      6 C265       -8.4191   60.4668   47.0626  C.2    1  RES1        0.000000
      7 C281       -7.1801   59.2687   48.7588  C.2    1  RES1        0.000000
      8 C313       -9.4335   59.5051   47.1279  C.2    1  RES1        0.000000
      9 C329       -8.1987   58.3102   48.8204  C.2    1  RES1        0.000000
     10 C361       -7.2903   60.3494   47.8792  C.2    1  RES1        0.000000
     11 C385       -9.3331   58.4250   48.0111  C.2    1  RES1        0.000000
     12 C409      -10.4779   57.4675   48.1658  C.2    1  RES1        0.000000
     13 O393       -9.6953   61.7042   45.5086  O       1  RES1        0.000000
     14 O693       -7.7311   62.5836   46.1999  O       1  RES1        0.000000
     15 Fe25      -10.5654   63.3399   44.9229   Fe    1  RES1        0.000000
     16  H1        -6.6013   65.4831   41.7409    H    1  RES1        0.000000
     17  H25      -10.2736   63.4806   40.7741    H    1  RES1        0.000000
     18  H57       -8.1237   65.6139   37.7277    H    1  RES1        0.000000
     19  C1        -8.6063   64.0595   42.8646  C.2    1  RES1        0.000000
     20  C33       -6.0897   66.5435   39.3124  C.2    1  RES1        0.000000
     21  C49       -8.4486   64.4283   41.4096  C.2    1  RES1        0.000000
     22  C81       -7.2324   65.6315   39.6885  C.2    1  RES1        0.000000
     23  C97       -7.3524   65.2017   41.0138  C.2    1  RES1        0.000000
     24 C121       -9.4216   64.0698   40.4633  C.2    1  RES1        0.000000
     25 C153       -8.2111   65.2699   38.7495  C.2    1  RES1        0.000000
     26 C169       -9.3130   64.4847   39.1255  C.2    1  RES1        0.000000
     27 C193      -10.4076   64.1598   38.1286  C.2    1  RES1        0.000000
     28 O441       -9.6559   63.3787   43.1674  O       1  RES1        0.000000
     29 O645       -7.7440   64.4526   43.6966  O       1  RES1        0.000000
     30 O321       -9.6052   64.6626   45.8136  OO    1  RES1        0.000000
     31  F21       -5.8424   64.6626   45.8136    F    1  RES1        0.000000
     32 Fe14       -7.6312   64.6626   45.8136   Fe    1  RES1        0.000000
     33 H177      -14.7534   68.2594   40.3218    H    1  RES1        0.000000
     34 H225      -13.0422   64.6088   41.7996    H    1  RES1        0.000000
     35 H241      -13.1891   68.0799   44.3079    H    1  RES1        0.000000
     36 C433      -14.2889   69.7632   42.5436  C.2    1  RES1        0.000000
     37 C481      -14.0452   68.3070   42.3552  C.2    1  RES1        0.000000
     38 C561      -14.3029   67.6940   41.1274  C.2    1  RES1        0.000000
     39 C609      -13.9366   66.3573   40.9287  C.2    1  RES1        0.000000
     40 C657      -13.3427   65.6346   41.9594  C.2    1  RES1        0.000000
     41 C673      -13.0810   66.2611   43.1776  C.2    1  RES1        0.000000
     42 C721      -13.4291   67.5921   43.3748  C.2    1  RES1        0.000000
     43 C112      -12.2968   65.5684   44.2214  C.2    1  RES1        0.000000
     44 C120      -14.0639   65.7541   39.5697  C.2    1  RES1        0.000000
     45 O345      -12.0128   64.3424   44.0147  O       1  RES1        0.000000
     46 O489      -11.9140   66.2575   45.2184  O       1  RES1        0.000000
     47  H73      -10.3155   69.7104   45.1143    H    1  RES1        0.000000
     48  H89       -8.1180   71.8340   42.1060    H    1  RES1        0.000000
     49 H121       -6.5139   68.2217   43.7831    H    1  RES1        0.000000
     50 C217       -8.6006   67.6500   45.4339  C.2    1  RES1        0.000000
     51 C233       -6.0312   70.1393   41.9088  C.2    1  RES1        0.000000
     52 C265       -8.4191   68.8585   44.5645  C.2    1  RES1        0.000000
     53 C281       -7.1801   70.0565   42.8683  C.2    1  RES1        0.000000
     54 C313       -9.4335   69.8201   44.4993  C.2    1  RES1        0.000000
     55 C329       -8.1987   71.0151   42.8067  C.2    1  RES1        0.000000
     56 C361       -7.2903   68.9759   43.7479  C.2    1  RES1        0.000000
     57 C385       -9.3331   70.9002   43.6160  C.2    1  RES1        0.000000
     58 C409      -10.4779   71.8578   43.4613  C.2    1  RES1        0.000000
     59 O393       -9.6953   67.6211   46.1185  O       1  RES1        0.000000
     60 O693       -7.7311   66.7417   45.4273  O       1  RES1        0.000000
     61 Fe25      -10.5654   65.9854   46.7042   Fe    1  RES1        0.000000
     62  H1        -6.6013   63.8422   49.8862    H    1  RES1        0.000000
     63  H25      -10.2736   65.8447   50.8531    H    1  RES1        0.000000
     64  H57       -8.1237   63.7113   53.8995    H    1  RES1        0.000000
     65  C1        -8.6063   65.2658   48.7625  C.2    1  RES1        0.000000
     66  C33       -6.0897   62.7817   52.3147  C.2    1  RES1        0.000000
     67  C49       -8.4486   64.8970   50.2175  C.2    1  RES1        0.000000
     68  C81       -7.2324   63.6937   51.9387  C.2    1  RES1        0.000000
     69  C97       -7.3524   64.1236   50.6134  C.2    1  RES1        0.000000
     70 C121       -9.4216   65.2555   51.1639  C.2    1  RES1        0.000000
     71 C153       -8.2111   64.0553   52.8776  C.2    1  RES1        0.000000
     72 C169       -9.3130   64.8406   52.5016  C.2    1  RES1        0.000000
     73 C193      -10.4076   65.1654   53.4985  C.2    1  RES1        0.000000
     74 O441       -9.6559   65.9466   48.4598  O       1  RES1        0.000000
     75 O645       -7.7440   64.8726   47.9305  O       1  RES1        0.000000
     76 H177      -14.7534   61.0658   51.3053    H    1  RES1        0.000000
     77 H225      -13.0422   64.7164   49.8276    H    1  RES1        0.000000
     78 H241      -13.1891   61.2453   47.3192    H    1  RES1        0.000000
     79 C433      -14.2889   59.5620   49.0836  C.2    1  RES1        0.000000
     80 C481      -14.0452   61.0182   49.2719  C.2    1  RES1        0.000000
     81 C561      -14.3029   61.6312   50.4997  C.2    1  RES1        0.000000
     82 C609      -13.9366   62.9679   50.6984  C.2    1  RES1        0.000000
     83 C657      -13.3427   63.6906   49.6678  C.2    1  RES1        0.000000
     84 C673      -13.0810   63.0642   48.4495  C.2    1  RES1        0.000000
     85 C721      -13.4291   61.7331   48.2523  C.2    1  RES1        0.000000
     86 C112      -12.2968   63.7568   47.4057  C.2    1  RES1        0.000000
     87 C120      -14.0639   63.5711   52.0574  C.2    1  RES1        0.000000
     88 O345      -12.0128   64.9828   47.6124  O       1  RES1        0.000000
     89 O489      -11.9140   63.0678   46.4088  O       1  RES1        0.000000
@<TRIPOS>BOND
    1     1     8  1
    2     2     9  1
    3     3    10  1
    4     4     6  1
    5     4    13  1
    6     4    14  1
    7     5     7  1
    8     6     8  1
    9     6    10  1
   10     7     9  1
   11     7    10  1
   12     8    11  1
   13     9    11  1
   14    11    12  1
   15    13    15  1
   16    14    32  1
   17    15    28  1
   18    15    30  1
   19    15    45  1
   20    15    89  1
   21    16    23  1
   22    17    24  1
   23    18    25  1
   24    19    21  1
   25    19    28  1
   26    19    29  1
   27    20    22  1
   28    21    23  1
   29    21    24  1
   30    22    23  1
   31    22    25  1
   32    24    26  1
   33    25    26  1
   34    26    27  1
   35    29    32  1
   36    30    32  1
   37    30    61  1
   38    31    32  1
   39    32    60  1
   40    32    75  1
   41    33    38  1
   42    34    40  1
   43    35    42  1
   44    36    37  1
   45    37    38  1
   46    37    42  1
   47    38    39  1
   48    39    40  1
   49    39    44  1
   50    40    41  1
   51    41    42  1
   52    41    43  1
   53    43    45  1
   54    43    46  1
   55    46    61  1
   56    47    54  1
   57    48    55  1
   58    49    56  1
   59    50    52  1
   60    50    59  1
   61    50    60  1
   62    51    53  1
   63    52    54  1
   64    52    56  1
   65    53    55  1
   66    53    56  1
   67    54    57  1
   68    55    57  1
   69    57    58  1
   70    59    61  1
   71    61    74  1
   72    61    88  1
   73    62    69  1
   74    63    70  1
   75    64    71  1
   76    65    67  1
   77    65    74  1
   78    65    75  1
   79    66    68  1
   80    67    69  1
   81    67    70  1
   82    68    69  1
   83    68    71  1
   84    70    72  1
   85    71    72  1
   86    72    73  1
   87    76    81  1
   88    77    83  1
   89    78    85  1
   90    79    80  1
   91    80    81  1
   92    80    85  1
   93    81    82  1
   94    82    83  1
   95    82    87  1
   96    83    84  1
   97    84    85  1
   98    84    86  1
   99    86    88  1
  100    86    89  1

@<TRIPOS>SUBSTRUCTURE
1 ****        1 TEMP                        0 ****  **** 0 ROOT
