@<TRIPOS>MOLECULE
*****
 124 135 0 0 0
SMALL
DMITRY ALIMOV ITC SB RAS

@<TRIPOS>ATOM
      1 H73        -0.7282   -3.7967    3.3992 H       1  RES11       0.0000
      2 H89         1.4693   -3.8780    7.0806 H       1  RES11       0.0000
      3 H121        3.0734   -1.8183    3.6719 H       1  RES11       0.0000
      4 C217        0.9867   -2.2661    1.9834 C.2     1  RES11       0.0000
      5 C233        3.5561   -2.3621    6.2976 C.3     1  RES11       0.0000
      6 C265        1.1682   -2.7829    3.3794 C.2     1  RES11       0.0000
      7 C281        2.4072   -2.8294    5.4555 C.2     1  RES11       0.0000
      8 C313        0.1538   -3.5442    3.9706 C.2     1  RES11       0.0000
      9 C329        1.3886   -3.5901    6.0419 C.2     1  RES11       0.0000
     10 C361        2.2970   -2.4243    4.1223 C.2     1  RES11       0.0000
     11 C385        0.2542   -3.9469    5.3065 C.2     1  RES11       0.0000
     12 C409       -0.8906   -4.6547    5.9696 C.3     1  RES11       0.0000
     13 O393       -0.1080   -2.6244    1.3992 O.3     1  RES11       0.0000
     14 O693        1.8562   -1.5089    1.4815 O.3     1  RES11       0.0000
     15 Fe25       -0.9781   -1.5948   -0.0001 Fe      1  RES11       0.0000
     16 H1          2.9860   -1.5941   -3.8365 H       1  RES11       0.0000
     17 H25        -0.6863   -3.7952   -3.5201 H       1  RES11       0.0000
     18 H57         1.4636   -3.7270   -7.2385 H       1  RES11       0.0000
     19 C1          0.9810   -2.1474   -2.1094 C.2     1  RES11       0.0000
     20 C33         3.4976   -2.0709   -6.4432 C.3     1  RES11       0.0000
     21 C49         1.1387   -2.6541   -3.5222 C.2     1  RES11       0.0000
     22 C81         2.3549   -2.6173   -5.6219 C.2     1  RES11       0.0000
     23 C97         2.2349   -2.2336   -4.2825 C.2     1  RES11       0.0000
     24 C121        0.1657   -3.4800   -4.1070 C.2     1  RES11       0.0000
     25 C153        1.3762   -3.4417   -6.1988 C.2     1  RES11       0.0000
     26 C169        0.2743   -3.8830   -5.4484 C.2     1  RES11       0.0000
     27 C193       -0.8203   -4.7093   -6.0938 C.3     1  RES11       0.0000
     28 O441       -0.0686   -2.5430   -1.4780 O.3     1  RES11       0.0000
     29 O645        1.8433   -1.3567   -1.6388 O.3     1  RES11       0.0000
     30 O321       -0.0179   -0.0001   -0.0000 Du      1  RES11       0.0000
     31 Fe14        1.9561   -0.0001   -0.0000 Fe      1  RES11       0.0000
     32 H177       -5.1661   -0.0838   -6.5642 H       1  RES11       0.0000
     33 H225       -3.4549   -2.2866   -3.2996 H       1  RES11       0.0000
     34 H241       -3.6018    1.9935   -3.1576 H       1  RES11       0.0000
     35 C433       -4.7016    2.4045   -5.5611 C.3     1  RES11       0.0000
     36 C481       -4.4579    1.0913   -4.9041 C.2     1  RES11       0.0000
     37 C561       -4.7156   -0.1029   -5.5802 C.2     1  RES11       0.0000
     38 C609       -4.3493   -1.3226   -4.9985 C.2     1  RES11       0.0000
     39 C657       -3.7554   -1.3464   -3.7399 C.2     1  RES11       0.0000
     40 C673       -3.4937   -0.1464   -3.0793 C.2     1  RES11       0.0000
     41 C721       -3.8418    1.0678   -3.6591 C.2     1  RES11       0.0000
     42 C112       -2.7095   -0.1380   -1.8266 C.2     1  RES11       0.0000
     43 C120       -4.4766   -2.5820   -5.7889 C.3     1  RES11       0.0000
     44 O345       -2.4255   -1.2704   -1.3134 O.3     1  RES11       0.0000
     45 O489       -2.3267    0.9904   -1.3845 O.3     1  RES11       0.0000
     46 H73        -0.7282    3.7964   -3.3993 H       1  RES11       0.0000
     47 H89         1.4693    3.8778   -7.0807 H       1  RES11       0.0000
     48 H121        3.0734    1.8181   -3.6721 H       1  RES11       0.0000
     49 C217        0.9867    2.2658   -1.9834 C.2     1  RES11       0.0000
     50 C233        3.5561    2.3619   -6.2978 C.3     1  RES11       0.0000
     51 C265        1.1682    2.7827   -3.3796 C.2     1  RES11       0.0000
     52 C281        2.4072    2.8291   -5.4556 C.2     1  RES11       0.0000
     53 C313        0.1538    3.5439   -3.9707 C.2     1  RES11       0.0000
     54 C329        1.3886    3.5898   -6.0421 C.2     1  RES11       0.0000
     55 C361        2.2970    2.4240   -4.1225 C.2     1  RES11       0.0000
     56 C385        0.2542    3.9465   -5.3066 C.2     1  RES11       0.0000
     57 C409       -0.8906    4.6544   -5.9698 C.3     1  RES11       0.0000
     58 O393       -0.1080    2.6242   -1.3994 O.3     1  RES11       0.0000
     59 O693        1.8562    1.5087   -1.4816 O.3     1  RES11       0.0000
     60 Fe25       -0.9781    1.5945   -0.0001 Fe      1  RES11       0.0000
     61 H1          2.9860    1.5939    3.8363 H       1  RES11       0.0000
     62 H25        -0.6863    3.7950    3.5200 H       1  RES11       0.0000
     63 H57         1.4636    3.7267    7.2384 H       1  RES11       0.0000
     64 C1          0.9810    2.1472    2.1092 C.2     1  RES11       0.0000
     65 C33         3.4976    2.0705    6.4431 C.3     1  RES11       0.0000
     66 C49         1.1387    2.6539    3.5221 C.2     1  RES11       0.0000
     67 C81         2.3549    2.6170    5.6218 C.2     1  RES11       0.0000
     68 C97         2.2349    2.2335    4.2824 C.2     1  RES11       0.0000
     69 C121        0.1657    3.4798    4.1069 C.2     1  RES11       0.0000
     70 C153        1.3762    3.4414    6.1987 C.2     1  RES11       0.0000
     71 C169        0.2743    3.8828    5.4482 C.2     1  RES11       0.0000
     72 C193       -0.8203    4.7089    6.0937 C.3     1  RES11       0.0000
     73 O441       -0.0686    2.5428    1.4779 O.3     1  RES11       0.0000
     74 O645        1.8433    1.3563    1.6386 O.3     1  RES11       0.0000
     75 H177       -5.1661    0.0835    6.5641 H       1  RES11       0.0000
     76 H225       -3.4549    2.2863    3.2995 H       1  RES11       0.0000
     77 H241       -3.6018   -1.9939    3.1574 H       1  RES11       0.0000
     78 C433       -4.7016   -2.4047    5.5611 C.3     1  RES11       0.0000
     79 C481       -4.4579   -1.0917    4.9040 C.2     1  RES11       0.0000
     80 C561       -4.7156    0.1025    5.5801 C.2     1  RES11       0.0000
     81 C609       -4.3493    1.3223    4.9984 C.2     1  RES11       0.0000
     82 C657       -3.7554    1.3462    3.7399 C.2     1  RES11       0.0000
     83 C673       -3.4937    0.1462    3.0791 C.2     1  RES11       0.0000
     84 C721       -3.8418   -1.0681    3.6590 C.2     1  RES11       0.0000
     85 C112       -2.7095    0.1377    1.8265 C.2     1  RES11       0.0000
     86 C120       -4.4766    2.5816    5.7887 C.3     1  RES11       0.0000
     87 O345       -2.4255    1.2701    1.3132 O.3     1  RES11       0.0000
     88 O489       -2.3267   -0.9906    1.3844 O.3     1  RES11       0.0000
     89 H           3.4683   -2.7743    7.2810 H       1  UNL1        0.0000
     90 H           3.5440   -1.2939    6.3562 H       1  UNL1        0.0000
     91 H           4.4760   -2.6847    5.8564 H       1  UNL1        0.0000
     92 H          -1.6596   -4.8417    5.2494 H       1  UNL1        0.0000
     93 H          -1.2801   -4.0435    6.7567 H       1  UNL1        0.0000
     94 H          -0.5485   -5.5837    6.3754 H       1  UNL1        0.0000
     95 H           4.1283   -1.4701   -5.8217 H       1  UNL1        0.0000
     96 H           3.1094   -1.4730   -7.2411 H       1  UNL1        0.0000
     97 H           4.0651   -2.8822   -6.8489 H       1  UNL1        0.0000
     98 H          -1.5660   -4.9460   -5.3639 H       1  UNL1        0.0000
     99 H          -0.4019   -5.6141   -6.4827 H       1  UNL1        0.0000
    100 H          -1.2657   -4.1510   -6.8907 H       1  UNL1        0.0000
    101 H          -5.1798    2.2475   -6.5054 H       1  UNL1        0.0000
    102 H          -3.7687    2.9060   -5.7128 H       1  UNL1        0.0000
    103 H          -5.3315    3.0038   -4.9376 H       1  UNL1        0.0000
    104 H          -4.9546   -2.3703   -6.7225 H       1  UNL1        0.0000
    105 H          -5.0627   -3.2895   -5.2405 H       1  UNL1        0.0000
    106 H          -3.5038   -2.9890   -5.9704 H       1  UNL1        0.0000
    107 H           3.4682    2.7741   -7.2812 H       1  UNL1        0.0000
    108 H           3.5441    1.2936   -6.3564 H       1  UNL1        0.0000
    109 H           4.4760    2.6846   -5.8567 H       1  UNL1        0.0000
    110 H          -1.6596    4.8414   -5.2497 H       1  UNL1        0.0000
    111 H          -1.2801    4.0433   -6.7569 H       1  UNL1        0.0000
    112 H          -0.5485    5.5835   -6.3755 H       1  UNL1        0.0000
    113 H           4.1282    1.4699    5.8215 H       1  UNL1        0.0000
    114 H           3.1094    1.4726    7.2409 H       1  UNL1        0.0000
    115 H           4.0651    2.8818    6.8488 H       1  UNL1        0.0000
    116 H          -1.5659    4.9457    5.3637 H       1  UNL1        0.0000
    117 H          -0.4019    5.6137    6.4826 H       1  UNL1        0.0000
    118 H          -1.2657    4.1507    6.8905 H       1  UNL1        0.0000
    119 H          -5.1798   -2.2477    6.5053 H       1  UNL1        0.0000
    120 H          -3.7687   -2.9062    5.7127 H       1  UNL1        0.0000
    121 H          -5.3315   -3.0042    4.9376 H       1  UNL1        0.0000
    122 H          -4.9546    2.3700    6.7223 H       1  UNL1        0.0000
    123 H          -5.0627    3.2892    5.2404 H       1  UNL1        0.0000
    124 H          -3.5038    2.9887    5.9702 H       1  UNL1        0.0000
@<TRIPOS>BOND
     1     1     8    1
     2     2     9    1
     3     3    10    1
     4     4     6    1
     5     4    13    1
     6     4    14    1
     7     5     7    1
     8     6     8    1
     9     6    10    1
    10     7     9    1
    11     7    10    1
    12     8    11    1
    13     9    11    1
    14    11    12    1
    15    13    15    1
    16    14    31    1
    17    15    28    1
    18    15    30    1
    19    15    44    1
    20    15    88    1
    21    16    23    1
    22    17    24    1
    23    18    25    1
    24    19    21    1
    25    19    28    1
    26    19    29    1
    27    20    22    1
    28    21    23    1
    29    21    24    1
    30    22    23    1
    31    22    25    1
    32    24    26    1
    33    25    26    1
    34    26    27    1
    35    29    31    1
    36    30    31    1
    37    30    60    1
    38    31    59    1
    39    31    74    1
    40    32    37    1
    41    33    39    1
    42    34    41    1
    43    35    36    1
    44    36    37    1
    45    36    41    1
    46    37    38    1
    47    38    39    1
    48    38    43    1
    49    39    40    1
    50    40    41    1
    51    40    42    1
    52    42    44    1
    53    42    45    1
    54    45    60    1
    55    46    53    1
    56    47    54    1
    57    48    55    1
    58    49    51    1
    59    49    58    1
    60    49    59    1
    61    50    52    1
    62    51    53    1
    63    51    55    1
    64    52    54    1
    65    52    55    1
    66    53    56    1
    67    54    56    1
    68    56    57    1
    69    58    60    1
    70    60    73    1
    71    60    87    1
    72    61    68    1
    73    62    69    1
    74    63    70    1
    75    64    66    1
    76    64    73    1
    77    64    74    1
    78    65    67    1
    79    66    68    1
    80    66    69    1
    81    67    68    1
    82    67    70    1
    83    69    71    1
    84    70    71    1
    85    71    72    1
    86    75    80    1
    87    76    82    1
    88    77    84    1
    89    78    79    1
    90    79    80    1
    91    79    84    1
    92    80    81    1
    93    81    82    1
    94    81    86    1
    95    82    83    1
    96    83    84    1
    97    83    85    1
    98    85    87    1
    99    85    88    1
   100     5    89    1
   101     5    90    1
   102     5    91    1
   103    12    92    1
   104    12    93    1
   105    12    94    1
   106    20    95    1
   107    20    96    1
   108    20    97    1
   109    27    98    1
   110    27    99    1
   111    27   100    1
   112    35   101    1
   113    35   102    1
   114    35   103    1
   115    43   104    1
   116    43   105    1
   117    43   106    1
   118    50   107    1
   119    50   108    1
   120    50   109    1
   121    57   110    1
   122    57   111    1
   123    57   112    1
   124    65   113    1
   125    65   114    1
   126    65   115    1
   127    72   116    1
   128    72   117    1
   129    72   118    1
   130    78   119    1
   131    78   120    1
   132    78   121    1
   133    86   122    1
   134    86   123    1
   135    86   124    1
