@<TRIPOS>MOLECULE
*****
 126 137 0 0 0
SMALL
USER_CHARGES

@<TRIPOS>ATOM
      1 H          -0.7344   -3.6036    3.3310 H       1  RES111      0.0000
      2 H           1.5491   -4.0615    6.9624 H       1  RES111      0.0000
      3 H           3.1706   -1.7715    3.6994 H       1  RES111      0.0000
      4 C           0.8951   -1.7439    2.0504 C.3     1  RES111      0.0000
      5 C           3.5974   -2.3491    6.3295 C.3     1  RES111      0.0000
      6 C           1.2189   -2.6359    3.2740 C.3     1  RES111      0.0000
      7 C           2.5631   -2.9673    5.3898 C.3     1  RES111      0.0000
      8 C          -0.0473   -3.0817    4.0307 C.3     1  RES111      0.0000
      9 C           1.2903   -3.3606    6.1382 C.3     1  RES111      0.0000
     10 C           2.2293   -2.0013    4.2429 C.3     1  RES111      0.0000
     11 C           0.3307   -4.0487    5.1645 C.3     1  RES111      0.0000
     12 C          -0.8937   -4.5887    5.9052 C.3     1  RES111      0.0000
     13 O           0.2586   -2.5630    1.1086 O.3     1  RES111      0.0000
     14 O           2.1007   -1.2750    1.4976 O.3     1  RES111      0.0000
     15 Fe         -1.1519   -1.7158    0.0785 Fe      1  RES111      0.0000
     16 H           2.9665   -1.3879   -3.8170 H       1  RES111      0.0000
     17 H          -0.7581   -3.5745   -3.4999 H       1  RES111      0.0000
     18 H           1.6866   -4.0184   -6.9978 H       1  RES111      0.0000
     19 C           0.7326   -1.5931   -2.1789 C.3     1  RES111      0.0000
     20 C           3.5122   -2.0651   -6.4364 C.3     1  RES111      0.0000
     21 C           1.1077   -2.4416   -3.4188 C.3     1  RES111      0.0000
     22 C           2.5373   -2.7243   -5.4642 C.3     1  RES111      0.0000
     23 C           2.0744   -1.7381   -4.3786 C.3     1  RES111      0.0000
     24 C          -0.0998   -3.0079   -4.1937 C.3     1  RES111      0.0000
     25 C           1.3377   -3.2980   -6.2260 C.3     1  RES111      0.0000
     26 C           0.3882   -3.9996   -5.2558 C.3     1  RES111      0.0000
     27 C          -0.7785   -4.6415   -6.0084 C.3     1  RES111      0.0000
     28 O          -0.2435   -2.3315   -1.5119 O.3     1  RES111      0.0000
     29 O           1.8957   -1.5168   -1.3909 O.3     1  RES111      0.0000
     30 O          -0.1915   -0.0196    0.1710 O.3     1  RES111      0.0000
     31 Fe          1.7019   -0.1772   -0.0295 Fe      1  RES111      0.0000
     32 H          -5.2027   -0.1015   -6.5712 H       1  RES111      0.0000
     33 H          -3.4644   -2.2237   -3.2275 H       1  RES111      0.0000
     34 H          -3.6887    2.1032   -3.2325 H       1  RES111      0.0000
     35 C          -4.7169    2.4493   -5.6827 C.3     1  RES111      0.0000
     36 C          -4.6259    1.1395   -4.9027 C.3     1  RES111      0.0000
     37 C          -4.3998   -0.0716   -5.8036 C.3     1  RES111      0.0000
     38 C          -4.4850   -1.3310   -4.9340 C.3     1  RES111      0.0000
     39 C          -3.3763   -1.3190   -3.8664 C.3     1  RES111      0.0000
     40 C          -3.5010   -0.0617   -2.9971 C.3     1  RES111      0.0000
     41 C          -3.5075    1.2090   -3.8670 C.3     1  RES111      0.0000
     42 C          -2.4366    0.0190   -1.8888 C.3     1  RES111      0.0000
     43 C          -4.4339   -2.6019   -5.7764 C.3     1  RES111      0.0000
     44 O          -2.6654   -1.0086   -0.9629 O.3     1  RES111      0.0000
     45 O          -2.6267    1.2648   -1.2641 O.3     1  RES111      0.0000
     46 H          -0.6913    3.9241   -3.2066 H       1  RES111      0.0000
     47 H           1.5303    3.9934   -6.9059 H       1  RES111      0.0000
     48 H           3.1787    1.9628   -3.4683 H       1  RES111      0.0000
     49 C           0.8689    2.0477   -1.7604 C.3     1  RES111      0.0000
     50 C           3.5585    2.3351   -6.1750 C.3     1  RES111      0.0000
     51 C           1.2346    2.8806   -3.0568 C.3     1  RES111      0.0000
     52 C           2.5607    3.0396   -5.2503 C.3     1  RES111      0.0000
     53 C          -0.0159    3.3351   -3.8616 C.3     1  RES111      0.0000
     54 C           1.2821    3.3832   -6.0081 C.3     1  RES111      0.0000
     55 C           2.2348    2.1797   -4.0113 C.3     1  RES111      0.0000
     56 C           0.3515    4.1767   -5.0943 C.3     1  RES111      0.0000
     57 C          -0.8846    4.6289   -5.8795 C.3     1  RES111      0.0000
     58 O          -0.4629    1.6698   -1.8376 O.3     1  RES111      0.0000
     59 O           1.6470    0.8827   -1.6902 O.3     1  RES111      0.0000
     60 Fe         -1.1943    1.5708   -0.0709 Fe      1  RES111      0.0000
     61 H           2.9327    1.3530    3.7362 H       1  RES111      0.0000
     62 H          -0.7432    3.6204    3.3369 H       1  RES111      0.0000
     63 H           1.6559    3.9780    6.9125 H       1  RES111      0.0000
     64 C           0.7192    1.6072    2.0092 C.3     1  RES111      0.0000
     65 C           3.4741    2.0444    6.3575 C.3     1  RES111      0.0000
     66 C           1.1056    2.4526    3.2722 C.3     1  RES111      0.0000
     67 C           2.5056    2.6994    5.3685 C.3     1  RES111      0.0000
     68 C           2.0335    1.7248    4.2697 C.3     1  RES111      0.0000
     69 C          -0.1026    3.0436    4.0364 C.3     1  RES111      0.0000
     70 C           1.3078    3.2751    6.1212 C.3     1  RES111      0.0000
     71 C           0.3753    4.0006    5.1518 C.3     1  RES111      0.0000
     72 C          -0.7838    4.6290    5.9330 C.3     1  RES111      0.0000
     73 O           0.0742    2.4562    1.1064 O.3     1  RES111      0.0000
     74 O           1.8985    1.1670    1.3866 O.3     1  RES111      0.0000
     75 H          -5.2214    0.1427    6.5849 H       1  RES111      0.0000
     76 H          -3.5036    2.2839    3.2307 H       1  RES111      0.0000
     77 H          -3.7102   -2.0322    3.2441 H       1  RES111      0.0000
     78 C          -4.7252   -2.4015    5.6766 C.3     1  RES111      0.0000
     79 C          -4.6493   -1.0838    4.9077 C.3     1  RES111      0.0000
     80 C          -4.4238    0.1214    5.8123 C.3     1  RES111      0.0000
     81 C          -4.5182    1.3832    4.9462 C.3     1  RES111      0.0000
     82 C          -3.4032    1.3893    3.8838 C.3     1  RES111      0.0000
     83 C          -3.4432    0.1161    3.0282 C.3     1  RES111      0.0000
     84 C          -3.5167   -1.1528    3.8975 C.3     1  RES111      0.0000
     85 C          -2.2686    0.0596    2.0261 C.3     1  RES111      0.0000
     86 C          -4.4630    2.6455    5.8018 C.3     1  RES111      0.0000
     87 O          -2.6661    0.8044    0.9167 O.3     1  RES111      0.0000
     88 O          -2.1163   -1.2905    1.6724 O.3     1  RES111      0.0000
     89 H           3.7572   -2.9988    7.2166 H       1  UNL11       0.0000
     90 H           3.2694   -1.3446    6.6708 H       1  UNL11       0.0000
     91 H           4.5673   -2.2560    5.7970 H       1  UNL11       0.0000
     92 H          -1.6025   -5.0562    5.1902 H       1  UNL11       0.0000
     93 H          -1.4117   -3.7805    6.4629 H       1  UNL11       0.0000
     94 H          -0.5740   -5.3739    6.6252 H       1  UNL11       0.0000
     95 H           4.3697   -1.6301   -5.8823 H       1  UNL11       0.0000
     96 H           3.0057   -1.2648   -7.0168 H       1  UNL11       0.0000
     97 H           3.9091   -2.8274   -7.1411 H       1  UNL11       0.0000
     98 H          -1.4781   -5.1281   -5.2958 H       1  UNL11       0.0000
     99 H          -0.3954   -5.4255   -6.6963 H       1  UNL11       0.0000
    100 H          -1.3298   -3.8827   -6.6015 H       1  UNL11       0.0000
    101 H          -5.4794    2.3693   -6.4852 H       1  UNL11       0.0000
    102 H          -3.7359    2.7166   -6.1277 H       1  UNL11       0.0000
    103 H          -5.0352    3.2608   -4.9925 H       1  UNL11       0.0000
    104 H          -5.1941   -2.5554   -6.5856 H       1  UNL11       0.0000
    105 H          -4.6721   -3.4774   -5.1366 H       1  UNL11       0.0000
    106 H          -3.4305   -2.7347   -6.2289 H       1  UNL11       0.0000
    107 H           3.7135    2.9284   -7.1035 H       1  UNL11       0.0000
    108 H           3.1968    1.3239   -6.4593 H       1  UNL11       0.0000
    109 H           4.5408    2.2456   -5.6673 H       1  UNL11       0.0000
    110 H          -1.6096    5.1361   -5.2102 H       1  UNL11       0.0000
    111 H          -1.3853    3.7692   -6.3753 H       1  UNL11       0.0000
    112 H          -0.5793    5.3577   -6.6625 H       1  UNL11       0.0000
    113 H           4.3389    1.6050    5.8196 H       1  UNL11       0.0000
    114 H           2.9664    1.2525    6.9486 H       1  UNL11       0.0000
    115 H           3.8678    2.8119    7.0609 H       1  UNL11       0.0000
    116 H          -1.4924    5.1348    5.2460 H       1  UNL11       0.0000
    117 H          -0.3895    5.3955    6.6375 H       1  UNL11       0.0000
    118 H          -1.3265    3.8625    6.5256 H       1  UNL11       0.0000
    119 H          -5.4827   -2.3398    6.4839 H       1  UNL11       0.0000
    120 H          -3.7375   -2.6645    6.1112 H       1  UNL11       0.0000
    121 H          -5.0351   -3.2098    4.9781 H       1  UNL11       0.0000
    122 H          -5.2163    2.5901    6.6169 H       1  UNL11       0.0000
    123 H          -4.7023    3.5296    5.1748 H       1  UNL11       0.0000
    124 H          -3.4565    2.7706    6.2505 H       1  UNL11       0.0000
    125 O          -1.8844   -3.2897   -0.0379 O.3     1  UNL1        0.0000
    126 H          -1.4070   -3.8971   -0.6599 H       1  UNL1        0.0000
@<TRIPOS>BOND
     1     1     8    1
     2     2     9    1
     3     3    10    1
     4     4     6    1
     5     4    13    1
     6     4    14    1
     7     5     7    1
     8     6     8    1
     9     6    10    1
    10     7     9    1
    11     7    10    1
    12     8    11    1
    13     9    11    1
    14    11    12    1
    15    13    15    1
    16    14    31    1
    17    15    28    1
    18    15    30    1
    19    15    44    1
    20    15    88    1
    21    16    23    1
    22    17    24    1
    23    18    25    1
    24    19    21    1
    25    19    28    1
    26    19    29    1
    27    20    22    1
    28    21    23    1
    29    21    24    1
    30    22    23    1
    31    22    25    1
    32    24    26    1
    33    25    26    1
    34    26    27    1
    35    29    31    1
    36    30    31    1
    37    30    60    1
    38    31    59    1
    39    31    74    1
    40    32    37    1
    41    33    39    1
    42    34    41    1
    43    35    36    1
    44    36    37    1
    45    36    41    1
    46    37    38    1
    47    38    39    1
    48    38    43    1
    49    39    40    1
    50    40    41    1
    51    40    42    1
    52    42    44    1
    53    42    45    1
    54    45    60    1
    55    46    53    1
    56    47    54    1
    57    48    55    1
    58    49    51    1
    59    49    58    1
    60    49    59    1
    61    50    52    1
    62    51    53    1
    63    51    55    1
    64    52    54    1
    65    52    55    1
    66    53    56    1
    67    54    56    1
    68    56    57    1
    69    58    60    1
    70    60    73    1
    71    60    87    1
    72    61    68    1
    73    62    69    1
    74    63    70    1
    75    64    66    1
    76    64    73    1
    77    64    74    1
    78    65    67    1
    79    66    68    1
    80    66    69    1
    81    67    68    1
    82    67    70    1
    83    69    71    1
    84    70    71    1
    85    71    72    1
    86    75    80    1
    87    76    82    1
    88    77    84    1
    89    78    79    1
    90    79    80    1
    91    79    84    1
    92    80    81    1
    93    81    82    1
    94    81    86    1
    95    82    83    1
    96    83    84    1
    97    83    85    1
    98    85    87    1
    99    85    88    1
   100     5    89    1
   101     5    90    1
   102     5    91    1
   103    12    92    1
   104    12    93    1
   105    12    94    1
   106    20    95    1
   107    20    96    1
   108    20    97    1
   109    27    98    1
   110    27    99    1
   111    27   100    1
   112    35   101    1
   113    35   102    1
   114    35   103    1
   115    43   104    1
   116    43   105    1
   117    43   106    1
   118    50   107    1
   119    50   108    1
   120    50   109    1
   121    57   110    1
   122    57   111    1
   123    57   112    1
   124    65   113    1
   125    65   114    1
   126    65   115    1
   127    72   116    1
   128    72   117    1
   129    72   118    1
   130    78   119    1
   131    78   120    1
   132    78   121    1
   133    86   122    1
   134    86   123    1
   135    86   124    1
   136    15   125    1
   137   125   126    1
